egret/models/tests/pglib_opf_case3_lmbd_acopf_1040.json
{"elements": {"bus": {"1": {"matpower_bustype": "ref", "area": 1.0, "vm": 1.1, "va": 0.0, "base_kv": 240.0, "zone": 1.0, "v_min": 0.9, "v_max": 1.1, "lmp": 40.08100384393692, "qlmp": 6.622961250156934e-11, "pl": 114.4, "ql": 41.6}, "2": {"matpower_bustype": "PV", "area": 1.0, "vm": 0.9261705366805241, "va": 0.1004963438948358, "base_kv": 240.0, "zone": 1.0, "v_min": 0.9, "v_max": 1.1, "lmp": 30.346686575378563, "qlmp": -8.85960652261876e-12, "pl": 114.4, "ql": 41.6}, "3": {"matpower_bustype": "PV", "area": 1.0, "vm": 0.9, "va": -0.3275618431145217, "base_kv": 240.0, "zone": 1.0, "v_min": 0.9, "v_max": 1.1, "lmp": 50.36958836631243, "qlmp": -2.647230685108674e-12, "pl": 98.8, "ql": 52.0}}, "load": {"load_1": {"in_service": true, "p_load": 114.4, "q_load": 41.6, "bus": "1"}, "load_2": {"in_service": true, "p_load": 114.4, "q_load": 41.6, "bus": "2"}, "load_3": {"in_service": true, "p_load": 98.8, "q_load": 52.0, "bus": "3"}}, "generator": {"1": {"bus": "1", "pg": 159.45910839626055, "qg": 56.6918944778161, "vg": 1.0, "mbase": 100.0, "in_service": true, "p_min": 0.0, "p_max": 2000.0, "q_min": -1000.0, "q_max": 1000.0, "generator_type": "thermal", "p_cost": {"data_type": "cost_curve", "cost_curve_type": "polynomial", "values": {"0": 0.0, "1": 5.0, "2": 0.11}}, "startup_cost": 0.0, "shutdown_cost": 0.0}, "2": {"bus": "2", "pg": 171.45109751969918, "qg": -7.389313240353858, "vg": 1.0, "mbase": 100.0, "in_service": true, "p_min": 0.0, "p_max": 2000.0, "q_min": -1000.0, "q_max": 1000.0, "generator_type": "thermal", "p_cost": {"data_type": "cost_curve", "cost_curve_type": "polynomial", "values": {"0": 0.0, "1": 1.2, "2": 0.08500000000000002}}, "startup_cost": 0.0, "shutdown_cost": 0.0}, "3": {"bus": "3", "pg": 0.0, "qg": -1.1505731494588005, "vg": 1.0, "mbase": 100.0, "in_service": true, "p_min": 0.0, "p_max": 0.0, "q_min": -1000.0, "q_max": 1000.0, "generator_type": "thermal", "p_cost": {"data_type": "cost_curve", "cost_curve_type": "polynomial", "values": {"0": 0.0, "1": 0.0, "2": 0.0}}, "startup_cost": 0.0, "shutdown_cost": 0.0}}, "branch": {"1": {"from_bus": "1", "to_bus": "3", "resistance": 0.065, "reactance": 0.62, "charging_susceptance": 0.45, "branch_type": "line", "rating_long_term": 9000.0, "rating_short_term": 9000.0, "rating_emergency": 9000.0, "in_service": true, "angle_diff_min": -30.0, "angle_diff_max": 30.0, "pf": 55.37542506234415, "qf": 10.943497806188104, "pt": -52.945568257487, "qt": -33.21640203715977, "pfl": 2.4298568048571556, "qfl": -22.27290423097167, "pf_dual": 4008.1003843938397, "qf_dual": 6.655183090843418e-09}, "2": {"from_bus": "3", "to_bus": "2", "resistance": 0.025, "reactance": 0.75, "charging_susceptance": 0.7, "branch_type": "line", "rating_long_term": 50.0, "rating_short_term": 50.0, "rating_emergency": 50.0, "in_service": true, "angle_diff_min": -30.0, "angle_diff_max": 30.0, "pf": -45.854431742513, "qf": -19.93417111229903, "pt": 46.52525122416619, "qt": -18.31395907004875, "pfl": 0.6708194816531898, "qfl": -38.24813018234778, "pf_dual": 4564.837752870892, "qf_dual": -205.24389679367425}, "3": {"from_bus": "1", "to_bus": "2", "resistance": 0.042, "reactance": 0.9, "charging_susceptance": 0.3, "branch_type": "line", "rating_long_term": 9000.0, "rating_short_term": 9000.0, "rating_emergency": 9000.0, "in_service": true, "angle_diff_min": -30.0, "angle_diff_max": 30.0, "pf": -10.316316666083608, "qf": 4.148396671627987, "pt": 10.525846295532979, "qt": -30.67535417030511, "pfl": 0.20952962944937176, "qfl": -26.526957498677124, "pf_dual": 4008.100384393663, "qf_dual": 6.635961808893292e-09}}}, "system": {"model_name": "pglib_opf_case3_lmbd", "mpc_version": "'2'", "baseMVA": 100.0, "reference_bus": "1", "reference_bus_angle": 0.0, "total_cost": 6298.645358023581, "ploss": 3.3102059159597172, "qloss": -87.04799191199658, "mult": 1.04}, "results": {"time": 0.023691177368164062, "#_cons": 36, "#_vars": 23, "termination": "optimal"}}